*SPEF "IEEE 1481-1998"
*DESIGN "cruise_control"
*DATE "Fri Nov 15 10:56:22 2019"
*VENDOR "Cadence Design Systems, Inc."
*PROGRAM "Innovus"
*VERSION "18.10-p002_1"
*DESIGN_FLOW "PIN_CAP NONE" "NAME_SCOPE LOCAL"
*DIVIDER /
*DELIMITER :
*BUS_DELIMITER []
*T_UNIT 1 NS
*C_UNIT 1 PF
*R_UNIT 1 OHM
*L_UNIT 1 HENRY

*NAME_MAP

*1 current_speed[7]
*2 current_speed[6]
*3 current_speed[5]
*4 current_speed[4]
*5 current_speed[3]
*6 current_speed[2]
*7 current_speed[1]
*8 current_speed[0]
*9 cruise_set_speed[7]
*10 cruise_set_speed[6]
*11 cruise_set_speed[5]
*12 cruise_set_speed[4]
*13 cruise_set_speed[3]
*14 cruise_set_speed[2]
*15 cruise_set_speed[1]
*16 cruise_set_speed[0]
*17 clk
*18 reset
*19 throttle
*20 set_6179
*21 accel
*22 coast
*23 cancel
*24 resume
*25 brake
*26 cruise_control_state
*27 n475
*28 n476
*29 n477
*30 n478
*31 n479
*32 n480
*33 n481
*34 n482
*35 n483
*36 n484
*37 n485
*38 n486
*39 n487
*40 n488
*41 n489
*42 n490
*43 next_state\[2\]
*44 N116
*45 N217
*46 N218
*47 N219
*48 N220
*49 N221
*50 N222
*51 N223
*52 N224
*53 N270
*54 N271
*55 N272
*56 N273
*57 N274
*58 N275
*59 N276
*60 N277
*61 N362
*62 N363
*63 N364
*64 N365
*65 N366
*66 N367
*67 N368
*68 N369
*69 N370
*70 n203
*71 n210
*72 n211
*73 n213
*74 n214
*75 n215
*76 n216
*77 n217
*78 n218
*79 n221
*80 n565
*81 n566
*82 n567
*83 n568
*84 n569
*85 n570
*86 n571
*87 n572
*88 n573
*89 n574
*90 n575
*91 n576
*92 n577
*93 n578
*94 n579
*95 n580
*96 n581
*97 n582
*98 n583
*99 n584
*100 n585
*101 n586
*102 n587
*103 n588
*104 n589
*105 n590
*106 n591
*107 n592
*108 n593
*109 n594
*110 n595
*111 n596
*112 n597
*113 n598
*114 n599
*115 n600
*116 n601
*117 n602
*118 n603
*119 n604
*120 n605
*121 n606
*122 n607
*123 n608
*124 n609
*125 n610
*126 n611
*127 n612
*128 n613
*129 n614
*130 n615
*131 n616
*132 n617
*133 n618
*134 n619
*135 n620
*136 n621
*137 n622
*138 n623
*139 n624
*140 n625
*141 n626
*142 n627
*143 n628
*144 n629
*145 n630
*146 n631
*147 n632
*148 n633
*149 n634
*150 n635
*151 n636
*152 n637
*153 n638
*154 n639
*155 n640
*156 n641
*157 n642
*158 n643
*159 n644
*160 n646
*161 n647
*162 n648
*163 n649
*164 n650
*165 n651
*166 n652
*167 n653
*168 n654
*169 n655
*170 n656
*171 n657
*172 n658
*173 n659
*174 n660
*175 n661
*176 n662
*177 n663
*178 n664
*179 n665
*180 n666
*181 n667
*182 n668
*183 n669
*184 n670
*185 n671
*186 n672
*187 n673
*188 n674
*189 n675
*190 n676
*191 n677
*192 n678
*193 n679
*194 n680
*195 n681
*196 n682
*197 n683
*198 n684
*199 n685
*200 n686
*201 n687
*202 n688
*203 n689
*204 n690
*205 n691
*206 n692
*207 n693
*208 n694
*209 n695
*210 n696
*211 n697
*212 n698
*213 n699
*214 n700
*215 n701
*216 n702
*217 n703
*218 n704
*219 n705
*220 n706
*221 n707
*222 n708
*223 n709
*224 n710
*225 n711
*226 n712
*227 n713
*228 n714
*229 n715
*230 n716
*231 n717
*232 n718
*233 n719
*234 n720
*235 n721
*236 n722
*237 n723
*238 n724
*239 n725
*240 n726
*241 n727
*242 n728
*243 n729
*244 n730
*245 n731
*246 n732
*247 n733
*248 n734
*249 n735
*250 n736
*251 n737
*252 n738
*253 n739
*254 n740
*255 n741
*256 n742
*257 n743
*258 n744
*259 n745
*260 n746
*261 n747
*262 n748
*263 n749
*264 n750
*265 n751
*266 n752
*267 n753
*268 n754
*269 n755
*270 n756
*271 n757
*272 n758
*273 n764
*274 n770
*275 n771
*276 n772
*277 n774
*278 n776
*279 n778
*280 n780
*281 n782
*282 n784
*283 n786
*284 n787
*285 n788
*286 n789
*287 n790
*288 n791
*289 n792
*290 n793
*291 n794
*292 n795
*293 n796
*294 n797
*295 n798
*296 n799
*297 n800
*298 n801
*299 n802
*300 n803
*301 n804
*302 n805
*303 n806
*304 n807
*305 n808
*306 n809
*307 n810
*308 n811
*309 n812
*310 n813
*311 n814
*312 n815
*313 n816
*314 n817
*315 n818
*316 n819
*317 n820
*318 n821
*319 n822
*320 n823
*321 n824
*322 n825
*323 n826
*324 n827
*325 n828
*326 n829
*327 n830
*328 n831
*329 n832
*330 n833
*331 n834
*332 n835
*333 n836
*334 n837
*335 n838
*336 n839
*337 n840
*338 n841
*339 n842
*340 n843
*341 n844
*342 n845
*343 n846
*344 n847
*345 n848
*346 n849
*347 n850
*348 current_state[2]
*349 current_state[1]
*350 current_state[0]
*351 last_state[2]
*352 last_state[1]
*353 last_state[0]
*354 interim_set_speed[7]
*355 interim_set_speed[6]
*356 interim_set_speed[5]
*357 interim_set_speed[4]
*358 interim_set_speed[3]
*359 interim_set_speed[2]
*360 interim_set_speed[1]
*361 interim_set_speed[0]
*362 add_129_S2/carry[7]
*363 add_129_S2/carry[6]
*364 add_129_S2/carry[5]
*365 add_129_S2/carry[4]
*366 add_129_S2/carry[3]
*367 add_129_S2/carry[2]
*368 r129/carry[7]
*369 r129/carry[6]
*370 r129/carry[5]
*371 r129/carry[4]
*372 r129/carry[3]
*373 r129/carry[2]
*374 cruise_set_speed_reg\[0\]
*375 current_speed_reg\[0\]
*376 current_state_reg\[1\]
*377 last_state_reg\[1\]
*378 current_speed_reg\[1\]
*379 current_speed_reg\[7\]
*380 current_speed_reg\[6\]
*381 current_speed_reg\[5\]
*382 current_speed_reg\[2\]
*383 current_speed_reg\[4\]
*384 interim_set_speed_reg\[0\]
*385 interim_set_speed_reg\[7\]
*386 interim_set_speed_reg\[6\]
*387 interim_set_speed_reg\[5\]
*388 interim_set_speed_reg\[4\]
*389 interim_set_speed_reg\[2\]
*390 interim_set_speed_reg\[1\]
*391 current_state_reg\[0\]
*392 last_state_reg\[0\]
*393 current_state_reg\[2\]
*394 last_state_reg\[2\]
*395 cruise_control_state_reg
*396 current_speed_reg\[3\]
*397 interim_set_speed_reg\[3\]
*398 cruise_set_speed_reg\[3\]
*399 cruise_set_speed_reg\[7\]
*400 cruise_set_speed_reg\[6\]
*401 cruise_set_speed_reg\[1\]
*402 cruise_set_speed_reg\[2\]
*403 cruise_set_speed_reg\[4\]
*404 cruise_set_speed_reg\[5\]
*405 U217
*406 U218
*407 U293
*408 U294
*409 U295
*410 U296
*411 U297
*412 U298
*413 U299
*414 U300
*415 U301
*416 U302
*417 U303
*418 U304
*419 U305
*420 U306
*421 U307
*422 U308
*423 U309
*424 U310
*425 U311
*426 U312
*427 U313
*428 U314
*429 U315
*430 U316
*431 U317
*432 U318
*433 U319
*434 U320
*435 U321
*436 U322
*437 U323
*438 U324
*439 U325
*440 U326
*441 U327
*442 U328
*443 U329
*444 U330
*445 U331
*446 U332
*447 U333
*448 U334
*449 U335
*450 U336
*451 U337
*452 U338
*453 U339
*454 U340
*455 U341
*456 U342
*457 U343
*458 U344
*459 U345
*460 U346
*461 U347
*462 U348
*463 U349
*464 U350
*465 U351
*466 U352
*467 U353
*468 U354
*469 U355
*470 U356
*471 U357
*472 U358
*473 U359
*474 U360
*475 U361
*476 U362
*477 U363
*478 U364
*479 U365
*480 U366
*481 U367
*482 U368
*483 U369
*484 U370
*485 U371
*486 U372
*487 U373
*488 U374
*489 U375
*490 U376
*491 U377
*492 U378
*493 U379
*494 U380
*495 U381
*496 U382
*497 U383
*498 U384
*499 U385
*500 U386
*501 U387
*502 U388
*503 U389
*504 U390
*505 U391
*506 U392
*507 U393
*508 U394
*509 U395
*510 U396
*511 U397
*512 U398
*513 U399
*514 U400
*515 U401
*516 U402
*517 U403
*518 U404
*519 U405
*520 U406
*521 U407
*522 U408
*523 U409
*524 U410
*525 U411
*526 U412
*527 U413
*528 U414
*529 U415
*530 U416
*531 U417
*532 U418
*533 U419
*534 U420
*535 U421
*536 U422
*537 U423
*538 U424
*539 U425
*540 U426
*541 U427
*542 U428
*543 U429
*544 U430
*545 U431
*546 U432
*547 U433
*548 U434
*549 U435
*550 U436
*551 U437
*552 U438
*553 U439
*554 U440
*555 U441
*556 U442
*557 U443
*558 U444
*559 U445
*560 U446
*561 U447
*562 U448
*563 U449
*564 U450
*565 U451
*566 U452
*567 U453
*568 U454
*569 U455
*570 U456
*571 U457
*572 U458
*573 U459
*574 U460
*575 U461
*576 U463
*577 U464
*578 U465
*579 U466
*580 U467
*581 U468
*582 U469
*583 U470
*584 U471
*585 U472
*586 U473
*587 U474
*588 U475
*589 U476
*590 U477
*591 U478
*592 U479
*593 U480
*594 U481
*595 U482
*596 U483
*597 U484
*598 U485
*599 U486
*600 U487
*601 U488
*602 U489
*603 U490
*604 U491
*605 U492
*606 U493
*607 U494
*608 U495
*609 U496
*610 U497
*611 U498
*612 U499
*613 U500
*614 U501
*615 U502
*616 add_129_S2/U1_1_6
*617 add_129_S2/U1_1_5
*618 add_129_S2/U1_1_4
*619 add_129_S2/U1_1_3
*620 add_129_S2/U1_1_2
*621 add_129_S2/U1_1_1
*622 add_129_S2/U2
*623 add_129_S2/U1
*624 r129/U1_1_6
*625 r129/U1_1_5
*626 r129/U1_1_4
*627 r129/U1_1_3
*628 r129/U1_1_2
*629 r129/U1_1_1
*630 r129/U2
*631 r129/U1
*632 U503
*633 U504
*634 U505
*635 U506
*636 U507
*637 U508
*638 U509
*639 U510
*640 U511
*641 U512
*642 U513
*643 U514
*644 U515
*645 U516
*646 U517
*647 U518
*648 U519
*649 U520
*650 U521
*651 U522
*652 U523
*653 U524
*654 U525
*655 U526
*656 U527
*657 U528
*658 U529
*659 U530
*660 U531
*661 U532
*662 U533
*663 U534
*664 U535
*665 U536
*666 U537
*667 U538
*668 U539
*669 U540
*670 U541
*671 U542
*672 U543
*673 U544
*674 U545
*675 U546
*676 U547
*677 U548
*678 U549
*679 U550
*680 U551
*681 U552
*682 U553
*683 U554
*684 U555
*685 U556
*686 U557
*687 U558
*688 U559
*689 U560
*690 U561
*691 U562
*692 U563
*693 U564
*694 U565
*695 U566
*696 U567
*697 U568
*698 U569
*699 U570
*700 U571
*701 U572
*702 U573
*703 U574
*704 U575
*705 U576
*706 U577
*707 U578
*708 U579
*709 U580
*710 U581
*711 U582
*712 U583
*713 U584
*714 U585
*715 U586
*716 U587
*717 U588
*718 U589
*719 U590
*720 U591
*721 U592
*722 U593
*723 U594
*724 U595
*725 U596


*PORTS

*17 I *C 0 0
*18 I *C 0 0
*19 I *C 0 0
*20 I *C 0 0
*21 I *C 0 0
*22 I *C 0 0
*23 I *C 0 0
*24 I *C 0 0
*25 I *C 0 0
*1 O *C 0 0
*2 O *C 0 0
*3 O *C 0 0
*4 O *C 0 0
*5 O *C 0 0
*6 O *C 0 0
*7 O *C 0 0
*8 O *C 0 0
*9 O *C 0 0
*10 O *C 0 0
*11 O *C 0 0
*12 O *C 0 0
*13 O *C 0 0
*14 O *C 0 0
*15 O *C 0 0
*16 O *C 0 0
*26 O *C 0 0


*D_NET *2 2.71084e-05

*CONN
*I *606:A I *C 96 78 *L 0 *D NOR2X1
*I *624:A I *C 78 84 *L 0 *D HAX1
*I *516:B I *C 126 84 *L 0 *D XOR2X1
*I *668:Y O *C 129 79 *L 0 *D INVX8
*P *2 O *C 0 0 *L 0

*CAP
1 *2:7 1.35542e-05
2 *2 1.35542e-05

*RES
1 *2:7 *2 0.0266667
2 *2:15 *668:Y 4
3 *2:13 *2:15 0.8
4 *2:12 *516:B 4
5 *2:10 *2:13 0.48
6 *2:10 *2:12 0.8
7 *2:9 *624:A 4
8 *2:8 *2:10 4
9 *2:7 *2:9 0.48
10 *2:6 *2:8 2.56
11 *2:4 *2:7 4
12 *2:3 *2:6 0.24
13 *2:2 *606:A 4
14 *2:1 *2:4 3.36
15 *2:1 *2:3 5.52
16 *2:0 *2:2 1.04
17 *2:0 *2:1 4
*END

*D_NET *3 2.71084e-05

*CONN
*I *433:B I *C 58 85 *L 0 *D NAND3X1
*I *431:A I *C 53 77 *L 0 *D OAI21X1
*I *625:A I *C 77 84 *L 0 *D HAX1
*I *607:A I *C 92 97 *L 0 *D NAND2X1
*I *667:Y O *C 95 82 *L 0 *D INVX8
*I *507:B I *C 116 85 *L 0 *D NOR2X1
*P *3 O *C 0 0 *L 0

*CAP
1 *3:9 1.35542e-05
2 *3 1.35542e-05

*RES
1 *3:9 *3 0.0266667
2 *3:28 *507:B 0.16
3 *3:27 *667:Y 0.16
4 *3:25 *3:28 4
5 *3:24 *3:27 4
6 *3:23 *607:A 4
7 *3:22 *3:25 4
8 *3:21 *3:24 0.24
9 *3:20 *3:23 0.16
10 *3:19 *3:22 4.24
11 *3:18 *3:21 0.16
12 *3:18 *3:20 2.88
13 *3:17 *3:19 0.24
14 *3:15 *3:18 4
15 *3:15 *3:17 1.92
16 *3:14 *625:A 4
17 *3:13 *3:15 4.64
18 *3:11 *3:14 0.24
19 *3:10 *3:13 0.24
20 *3:9 *431:A 0.24
21 *3:8 *3:11 4
22 *3:8 *3:10 0.4
23 *3:7 *3:9 0.64
24 *3:6 *3:8 3.6
25 *3:5 *3:7 4
26 *3:3 *3:6 4
27 *3:2 *3:5 1.84
28 *3:1 *433:B 4
29 *3:1 *3:3 0.16
30 *3:0 *3:2 0.64
31 *3:0 *3:1 0.48
*END

*D_NET *4 2.71084e-05

*CONN
*I *433:A I *C 57 86 *L 0 *D NAND3X1
*I *439:A I *C 56 97 *L 0 *D OAI21X1
*I *665:Y O *C 99 102 *L 0 *D INVX8
*I *626:A I *C 81 97 *L 0 *D HAX1
*I *505:A I *C 116 97 *L 0 *D OAI21X1
*I *492:A I *C 115 76 *L 0 *D AOI21X1
*P *4 O *C 0 0 *L 0

*CAP
1 *4:0 1.35542e-05
2 *4 1.35542e-05

*RES
1 *4:0 *4 0.0266667
2 *4:32 *492:A 4
3 *4:31 *4:32 1.28
4 *4:29 *4:31 4
5 *4:28 *505:A 4
6 *4:27 *4:29 4
7 *4:26 *4:28 0.24
8 *4:25 *4:27 3.92
9 *4:24 *4:26 4
10 *4:21 *4:25 4
11 *4:21 *4:24 0.4
12 *4:20 *626:A 0.16
13 *4:19 *665:Y 4
14 *4:18 *4:21 2.32
15 *4:17 *4:20 4
16 *4:16 *4:19 1.28
17 *4:15 *4:18 0.24
18 *4:14 *4:17 4
19 *4:13 *4:16 4
20 *4:13 *4:15 1.92
21 *4:12 *4:14 2.08
22 *4:12 *4:13 2.32
23 *4:11 *4:12 4
24 *4:10 *4:11 2.52
25 *4:9 *4:10 4
26 *4:8 *4:9 7.28
27 *4:7 *4:8 4
28 *4:6 *4:7 4
29 *4:4 *4:6 0.64
30 *4:3 *439:A 4
31 *4:2 *4:4 4
32 *4:2 *4:3 2.88
33 *4:0 *4:2 4
34 *4:0 *433:A 0.16
*END

*D_NET *5 2.71084e-05

*CONN
*I *627:A I *C 82 104 *L 0 *D HAX1
*I *461:B I *C 77 116 *L 0 *D NAND3X1
*I *595:B I *C 83 105 *L 0 *D NOR2X1
*I *664:Y O *C 100 119 *L 0 *D INVX8
*I *508:A I *C 118 117 *L 0 *D OAI21X1
*I *494:A I *C 120 104 *L 0 *D OAI21X1
*I *496:C I *C 116 125 *L 0 *D AOI22X1
*P *5 O *C 0 0 *L 0

*CAP
1 *627:A 1.35542e-05
2 *5 1.35542e-05

*RES
1 *627:A *5 0.0266667
2 *5:32 *496:C 4
3 *5:31 *494:A 4
4 *5:29 *5:32 0.64
5 *5:28 *5:31 2.64
6 *5:27 *508:A 4
7 *5:27 *5:29 2.08
8 *5:26 *5:28 0.64
9 *5:26 *5:27 0.8
10 *5:25 *5:26 4
11 *5:24 *5:25 0.4
12 *5:23 *5:24 0.24
13 *5:22 *5:23 2.56
14 *5:21 *5:22 0.24
15 *5:19 *5:21 1.44
16 *5:18 *664:Y 4
17 *5:17 *5:19 0.24
18 *5:16 *5:18 4
19 *5:16 *5:17 0.4
20 *5:15 *5:16 0.4
21 *5:13 *5:15 0.24
22 *5:11 *595:B 0.16
23 *5:10 *5:13 5.28
24 *5:9 *461:B 0.48
25 *627:A *5:11 0.24
26 *5:8 *5:10 0.24
27 *5:7 *5:9 0.16
28 *5:5 *5:8 0.4
29 *5:4 *5:7 4
30 *5:3 *627:A 4
31 *5:2 *5:5 4
32 *5:2 *5:4 0.24
33 *5:1 *5:3 2.08
34 *5:0 *5:2 0.24
35 *5:0 *5:1 0.16
*END

*D_NET *6 2.71084e-05

*CONN
*I *473:A I *C 80 124 *L 0 *D OAI21X1
*I *461:C I *C 78 114 *L 0 *D NAND3X1
*I *628:A I *C 82 144 *L 0 *D HAX1
*I *666:Y O *C 100 139 *L 0 *D INVX8
*I *510:A I *C 121 137 *L 0 *D OAI22X1
*P *6 O *C 0 0 *L 0

*CAP
1 *461:C 1.35542e-05
2 *6 1.35542e-05

*RES
1 *461:C *6 0.0266667
2 *6:32 *510:A 4
3 *6:31 *6:32 0.24
4 *6:30 *6:31 4
5 *6:29 *6:30 0.4
6 *6:28 *6:29 0.08
7 *6:27 *6:28 1.28
8 *6:26 *6:27 0.08
9 *6:25 *6:26 1.44
10 *6:24 *6:25 0.08
11 *6:23 *6:24 2.08
12 *6:21 *6:23 0.08
13 *6:20 *666:Y 4
14 *6:19 *6:21 0.4
15 *6:18 *6:20 4
16 *6:18 *6:19 0.24
17 *6:17 *6:18 0.4
18 *6:16 *6:17 0.08
19 *6:15 *6:16 1.92
20 *6:14 *6:15 0.08
21 *6:12 *6:14 2.32
22 *6:11 *628:A 4
23 *6:10 *6:12 4
24 *6:10 *6:11 2.4
25 *6:9 *6:10 1.28
26 *6:8 *6:9 0.16
27 *6:7 *6:8 1.6
28 *6:6 *6:7 4
29 *6:3 *6:6 0.4
30 *6:2 *461:C 4
31 *6:1 *473:A 4
32 *6:1 *6:3 4
33 *6:0 *6:2 2.64
34 *6:0 *6:1 0.4
*END

*D_NET *7 2.71084e-05

*CONN
*I *474:A I *C 70 124 *L 0 *D OAI21X1
*I *669:Y O *C 69 139 *L 0 *D INVX8
*I *461:A I *C 76 115 *L 0 *D NAND3X1
*I *475:A I *C 60 125 *L 0 *D AOI21X1
*I *629:A I *C 70 144 *L 0 *D HAX1
*I *609:A I *C 71 138 *L 0 *D NOR2X1
*P *7 O *C 0 0 *L 0

*CAP
1 *475:A 1.35542e-05
2 *7 1.35542e-05

*RES
1 *475:A *7 0.0266667
2 *7:20 *609:A 4
3 *7:19 *629:A 0.16
4 *7:18 *7:20 0.24
5 *7:17 *7:19 4
6 *7:16 *7:18 0.4
7 *7:16 *7:17 1.28
8 *669:Y *7:16 4
9 *7:13 *475:A 1.92
10 *7:11 *461:A 0.4
11 *7:10 *7:13 4
12 *7:9 *669:Y 4
13 *7:8 *7:11 4
14 *7:6 *7:10 0.24
15 *7:6 *7:9 1.6
16 *7:5 *7:8 1.04
17 *7:4 *474:A 4
18 *7:3 *7:6 0.64
19 *7:2 *7:5 0.16
20 *7:1 *7:4 0.24
21 *7:1 *7:3 0.24
22 *7:0 *7:2 1.6
23 *7:0 *7:1 1.04
*END

*D_NET *9 2.71084e-05

*CONN
*I *517:B I *C 125 56 *L 0 *D NOR2X1
*I *426:D I *C 89 84 *L 0 *D AOI22X1
*I *501:A I *C 121 57 *L 0 *D NAND2X1
*I *522:A I *C 148 65 *L 0 *D AOI22X1
*I *634:Y O *C 160 42 *L 0 *D INVX8
*I *622:B I *C 153 77 *L 0 *D XOR2X1
*I *569:B I *C 151 85 *L 0 *D NOR2X1
*P *9 O *C 0 0 *L 0

*CAP
1 *9:3 1.35542e-05
2 *9 1.35542e-05

*RES
1 *9:3 *9 0.0266667
2 *9:56 *569:B 0.4
3 *9:55 *9:56 0.48
4 *9:54 *9:55 0.16
5 *9:52 *9:54 4
6 *9:51 *622:B 4
7 *9:51 *9:52 2.64
8 *9:50 *9:51 0.48
9 *9:49 *9:50 0.16
10 *9:48 *9:49 1.84
11 *9:47 *9:48 0.16
12 *9:46 *9:47 0.48
13 *9:45 *9:46 4
14 *9:44 *9:45 1.44
15 *9:41 *9:44 4
16 *9:40 *634:Y 4
17 *9:39 *522:A 4
18 *9:39 *9:41 0.24
19 *9:38 *9:40 1.6
20 *9:37 *9:39 0.48
21 *9:36 *9:38 4
22 *9:35 *9:37 0.16
23 *9:34 *9:36 0.4
24 *9:33 *9:35 1.28
25 *9:32 *9:34 0.24
26 *9:31 *9:33 0.16
27 *9:30 *9:32 1.92
28 *9:29 *9:31 0.48
29 *9:28 *9:30 0.48
30 *9:27 *9:29 4
31 *9:27 *9:28 1.04
32 *9:25 *9:27 0.4
33 *9:24 *501:A 4
34 *9:23 *9:25 0.48
35 *9:20 *9:24 0.24
36 *9:19 *9:23 5.12
37 *9:18 *426:D 4
38 *9:17 *517:B 4
39 *9:17 *9:20 1.04
40 *9:16 *9:19 0.48
41 *9:15 *9:18 4
42 *9:14 *9:17 4
43 *9:14 *9:16 0.4
44 *9:13 *9:15 4
45 *9:12 *9:14 0.4
46 *9:11 *9:13 4
47 *9:10 *9:12 0.24
48 *9:9 *9:11 1.82
49 *9:8 *9:10 1.28
50 *9:7 *9:9 4
51 *9:6 *9:8 0.24
52 *9:5 *9:7 6.51
53 *9:4 *9:6 2.72
54 *9:3 *9:5 4
55 *9:2 *9:4 0.24
56 *9:1 *9:3 0.64
57 *9:0 *9:2 2.32
58 *9:0 *9:1 0.24
*END

*D_NET *10 2.71084e-05

*CONN
*I *516:A I *C 131 84 *L 0 *D XOR2X1
*I *616:A I *C 140 64 *L 0 *D HAX1
*I *569:A I *C 149 83 *L 0 *D NOR2X1
*I *491:D I *C 124 85 *L 0 *D OAI22X1
*I *663:Y O *C 158 79 *L 0 *D INVX8
*I *502:A I *C 125 76 *L 0 *D AOI21X1
*P *10 O *C 0 0 *L 0

*CAP
1 *502:A 1.35542e-05
2 *10 1.35542e-05

*RES
1 *502:A *10 0.0266667
2 *10:28 *502:A 4
3 *10:26 *10:28 0.48
4 *10:23 *663:Y 0.64
5 *10:21 *10:26 0.16
6 *10:20 *491:D 4
7 *10:19 *569:A 0.4
8 *10:18 *10:23 4
9 *10:17 *616:A 0.16
10 *10:15 *10:21 1.6
11 *10:15 *10:20 0.24
12 *10:14 *10:19 4
13 *10:13 *10:18 1.84
14 *10:12 *10:17 4
15 *10:11 *516:A 4
16 *10:10 *10:15 4
17 *10:9 *10:14 0.24
18 *10:8 *10:13 4
19 *10:7 *10:12 0.48
20 *10:6 *10:11 4
21 *10:6 *10:10 1.68
22 *10:5 *10:9 4
23 *10:5 *10:8 1.68
24 *10:4 *10:7 0.16
25 *10:3 *10:6 2.08
26 *10:3 *10:5 2.32
27 *10:2 *10:4 1.84
28 *10:1 *10:3 4
29 *10:0 *10:2 0.16
30 *10:0 *10:1 2.88
*END

*D_NET *17 2.71084e-05

*CONN
*I *393:CLK I *C 50 38 *L 0 *D DFFSR
*I *391:CLK I *C 43 43 *L 0 *D DFFSR
*I *379:CLK I *C 63 57 *L 0 *D DFFPOSX1
*I *376:CLK I *C 40 58 *L 0 *D DFFSR
*I *380:CLK I *C 32 64 *L 0 *D DFFPOSX1
*I *383:CLK I *C 32 117 *L 0 *D DFFPOSX1
*I *375:CLK I *C 32 144 *L 0 *D DFFPOSX1
*I *378:CLK I *C 54 144 *L 0 *D DFFPOSX1
*I *382:CLK I *C 93 144 *L 0 *D DFFPOSX1
*I *396:CLK I *C 93 124 *L 0 *D DFFPOSX1
*I *381:CLK I *C 89 104 *L 0 *D DFFPOSX1
*I *402:CLK I *C 147 137 *L 0 *D DFFPOSX1
*I *401:CLK I *C 150 144 *L 0 *D DFFPOSX1
*I *403:CLK I *C 148 97 *L 0 *D DFFPOSX1
*I *398:CLK I *C 176 104 *L 0 *D DFFPOSX1
*I *404:CLK I *C 176 97 *L 0 *D DFFPOSX1
*I *374:CLK I *C 176 144 *L 0 *D DFFPOSX1
*I *400:CLK I *C 172 57 *L 0 *D DFFPOSX1
*I *395:CLK I *C 162 37 *L 0 *D DFFPOSX1
*I *399:CLK I *C 148 44 *L 0 *D DFFPOSX1
*I *377:CLK I *C 146 37 *L 0 *D DFFPOSX1
*I *394:CLK I *C 136 37 *L 0 *D DFFPOSX1
*I *392:CLK I *C 127 37 *L 0 *D DFFPOSX1
*P *17 I *C 0 0 *L 0

*CAP
1 *17:8 1.35542e-05
2 *17 1.35542e-05

*RES
1 *17:8 *17 0.0266667
2 *17:146 *392:CLK 4
3 *17:145 *394:CLK 4
4 *17:144 *17:146 4
5 *17:143 *17:145 0.24
6 *17:142 *17:144 1.28
7 *17:142 *17:143 4
8 *17:141 *17:142 0.4
9 *17:140 *17:141 0.24
10 *17:139 *17:140 1.68
11 *17:138 *17:139 0.24
12 *17:137 *17:138 0.4
13 *17:136 *17:137 4
14 *17:135 *17:136 0.24
15 *377:CLK *17:135 4
16 *17:132 *377:CLK 4
17 *17:131 *399:CLK 4
18 *17:130 *17:132 0.24
19 *17:130 *17:131 1.6
20 *17:129 *17:130 4
21 *17:128 *17:129 0.4
22 *17:127 *17:128 0.24
23 *17:126 *17:127 2.08
24 *17:125 *17:126 0.24
25 *17:124 *17:125 0.4
26 *17:123 *17:124 4
27 *17:122 *17:123 0.24
28 *395:CLK *17:122 4
29 *17:120 *395:CLK 4
30 *17:119 *17:120 1.28
31 *17:118 *17:119 0.16
32 *17:117 *17:118 1.28
33 *17:116 *17:117 0.16
34 *17:115 *17:116 1.84
35 *17:114 *17:115 0.16
36 *17:113 *17:114 0.48
37 *400:CLK *17:113 4
38 *17:111 *400:CLK 4
39 *17:110 *17:111 4.48
40 *17:109 *17:110 0.16
41 *17:108 *17:109 1.84
42 *17:107 *17:108 0.16
43 *17:106 *17:107 3.2
44 *17:104 *17:106 4
45 *17:103 *374:CLK 4
46 *17:102 *17:104 1.44
47 *17:101 *17:103 10.4
48 *17:100 *17:102 4
49 *398:CLK *17:101 4
50 *17:98 *17:100 0.8
51 *17:98 *404:CLK 4
52 *17:96 *17:98 1.84
53 *17:96 *398:CLK 4
54 *17:95 *17:96 0.48
55 *17:94 *17:95 4
56 *17:93 *17:94 3.2
57 *17:92 *17:93 0.24
58 *17:91 *17:92 1.44
59 *17:89 *17:91 0.24
60 *17:88 *403:CLK 4
61 *17:87 *17:89 3.6
62 *17:86 *17:88 2.4
63 *17:85 *17:87 4
64 *17:85 *17:86 0.16
65 *17:84 *17:85 0.48
66 *17:83 *17:84 0.16
67 *17:82 *17:83 1.6
68 *17:81 *17:82 0.16
69 *17:80 *17:81 1.04
70 *17:79 *17:80 0.16
71 *17:77 *17:79 2.88
72 *17:75 *401:CLK 4
73 *17:74 *17:77 0.16
74 *17:73 *402:CLK 4
75 *17:73 *17:75 1.6
76 *17:71 *17:74 0.48
77 *17:71 *17:73 1.84
78 *17:70 *381:CLK 4
79 *17:69 *17:71 4
80 *17:68 *17:70 3.44
81 *17:67 *17:69 4.24
82 *17:66 *17:68 0.16
83 *17:65 *17:67 0.24
84 *17:64 *17:66 1.84
85 *17:63 *17:65 3.2
86 *396:CLK *17:64 4
87 *17:62 *17:63 0.24
88 *17:60 *17:62 5.52
89 *17:59 *396:CLK 4
90 *17:57 *17:60 4
91 *17:57 *17:59 1.84
92 *17:56 *382:CLK 4
93 *17:55 *17:57 2.88
94 *17:55 *17:56 0.48
95 *17:54 *17:55 4
96 *17:53 *17:54 1.68
97 *17:52 *17:53 0.08
98 *17:51 *17:52 2.32
99 *17:50 *17:51 0.08
100 *17:49 *17:50 0.8
101 *17:48 *17:49 0.08
102 *17:47 *17:48 3.2
103 *17:46 *17:47 0.08
104 *17:44 *17:46 0.4
105 *17:43 *378:CLK 4
106 *17:42 *17:44 0.24
107 *17:41 *17:43 4
108 *17:41 *17:42 2.32
109 *17:40 *17:41 3.84
110 *17:39 *17:40 0.24
111 *17:38 *17:39 1.68
112 *17:37 *17:38 0.24
113 *17:35 *17:37 0.4
114 *17:33 *375:CLK 4
115 *17:33 *17:35 4
116 *17:32 *383:CLK 4
117 *17:32 *17:33 6.64
118 *17:31 *17:32 0.8
119 *17:30 *17:31 0.16
120 *17:29 *17:30 13.04
121 *17:27 *17:29 0.64
122 *17:26 *380:CLK 4
123 *17:26 *17:27 0.48
124 *17:25 *17:26 0.8
125 *17:23 *17:25 0.8
126 *17:21 *376:CLK 4
127 *17:21 *17:23 0.8
128 *17:20 *379:CLK 4
129 *17:19 *17:21 1.6
130 *17:18 *17:20 1.04
131 *17:17 *17:19 0.16
132 *17:16 *17:18 4
133 *17:15 *17:17 0.24
134 *17:14 *17:16 0.4
135 *17:12 *17:15 0.64
136 *17:11 *17:14 0.24
137 *17:10 *391:CLK 4
138 *17:10 *17:12 2.08
139 *17:9 *17:11 1.28
140 *17:8 *17:10 0.24
141 *17:7 *17:9 0.24
142 *17:6 *17:8 4
143 *17:5 *17:7 0.4
144 *17:4 *17:6 1.92
145 *17:3 *17:5 4
146 *17:1 *17:4 4
147 *17:1 *17:3 2.64
148 *17:0 *393:CLK 4
149 *17:0 *17:1 1.04
*END

*D_NET *19 2.71084e-05

*CONN
*I *611:A I *C 89 56 *L 0 *D AOI22X1
*I *722:A I *C 88 64 *L 0 *D INVX2
*I *405:B I *C 99 64 *L 0 *D OR2X2
*I *489:A I *C 113 63 *L 0 *D NOR2X1
*P *19 I *C 0 0 *L 0

*CAP
1 *611:A 1.35542e-05
2 *19 1.35542e-05

*RES
1 *611:A *19 0.0266667
2 *19:10 *489:A 1.04
3 *19:9 *19:10 0.24
4 *405:B *19:9 2.72
5 *19:7 *405:B 4
6 *19:5 *19:7 4
7 *19:4 *722:A 0.16
8 *19:3 *19:5 2.56
9 *19:1 *19:4 4
10 *19:1 *19:3 4
11 *19:0 *611:A 4
12 *19:0 *19:1 2.08
*END

*D_NET *20 2.71084e-05

*CONN
*I *723:A I *C 127 57 *L 0 *D INVX2
*I *385:CLK I *C 128 44 *L 0 *D DFFPOSX1
*I *386:CLK I *C 128 64 *L 0 *D DFFPOSX1
*I *603:A I *C 126 64 *L 0 *D NAND2X1
*I *387:CLK I *C 135 77 *L 0 *D DFFPOSX1
*I *388:CLK I *C 132 104 *L 0 *D DFFPOSX1
*I *389:CLK I *C 132 117 *L 0 *D DFFPOSX1
*I *397:CLK I *C 131 124 *L 0 *D DFFPOSX1
*I *390:CLK I *C 131 144 *L 0 *D DFFPOSX1
*I *384:CLK I *C 120 144 *L 0 *D DFFPOSX1
*P *20 I *C 0 0 *L 0

*CAP
1 *385:CLK 1.35542e-05
2 *20 1.35542e-05

*RES
1 *385:CLK *20 0.0266667
2 *20:38 *384:CLK 4
3 *20:37 *20:38 0.24
4 *20:36 *20:37 4
5 *20:35 *20:36 1.68
6 *20:34 *20:35 4
7 *20:33 *20:34 0.48
8 *390:CLK *20:33 4
9 *20:30 *390:CLK 4
10 *20:28 *397:CLK 4
11 *20:28 *20:30 5.28
12 *20:26 *389:CLK 4
13 *20:26 *20:28 1.6
14 *20:25 *388:CLK 4
15 *20:25 *20:26 3.68
16 *20:24 *20:25 1.6
17 *20:23 *20:24 4
18 *20:21 *20:23 0.8
19 *20:20 *387:CLK 4
20 *20:19 *20:21 4
21 *20:18 *20:20 0.48
22 *20:17 *20:19 5.32
23 *20:16 *20:18 4
24 *20:15 *20:17 4
25 *20:15 *20:16 0.16
26 *20:14 *20:15 1.28
27 *20:13 *20:14 4
28 *20:12 *20:13 2.64
29 *386:CLK *20:12 4
30 *20:9 *603:A 4
31 *20:8 *386:CLK 4
32 *20:7 *20:9 0.48
33 *20:6 *20:8 0.48
34 *20:3 *20:7 0.16
35 *20:3 *20:6 0.16
36 *20:2 *385:CLK 4
37 *20:1 *723:A 4
38 *20:1 *20:3 1.28
39 *20:0 *20:2 3.44
40 *20:0 *20:1 0.16
*END

*D_NET *21 2.71084e-05

*CONN
*I *558:A I *C 176 38 *L 0 *D NOR2X1
*I *724:A I *C 174 44 *L 0 *D INVX2
*P *21 I *C 0 0 *L 0

*CAP
1 *21:1 1.35542e-05
2 *21 1.35542e-05

*RES
1 *21:1 *21 0.0266667
2 *21:4 *724:A 4
3 *21:3 *21:4 1.28
4 *21:2 *21:3 4
5 *21:1 *21:2 0.24
6 *558:A *21:1 0.64
*END

*D_NET *22 2.71084e-05

*CONN
*I *565:B I *C 177 46 *L 0 *D AND2X1
*I *558:B I *C 178 36 *L 0 *D NOR2X1
*P *22 I *C 0 0 *L 0

*CAP
1 *558:B 1.35542e-05
2 *22 1.35542e-05

*RES
1 *558:B *22 0.0266667
2 *22:4 *558:B 0.16
3 *22:3 *22:4 4
4 *22:2 *22:3 2.64
5 *22:1 *22:2 4
6 *565:B *22:1 0.4
*END

*D_NET *23 2.71084e-05

*CONN
*I *578:B I *C 80 36 *L 0 *D OAI21X1
*I *585:A I *C 76 43 *L 0 *D NOR2X1
*P *23 I *C 0 0 *L 0

*CAP
1 *23:3 1.35542e-05
2 *23 1.35542e-05

*RES
1 *23:3 *23 0.0266667
2 *23:4 *585:A 4
3 *23:3 *23:4 1.84
4 *23:2 *23:3 1.04
5 *23:1 *23:2 4
6 *578:B *23:1 0.16
*END

*D_NET *25 2.71084e-05

*CONN
*I *725:A I *C 81 44 *L 0 *D INVX2
*I *578:A I *C 80 37 *L 0 *D OAI21X1
*I *585:B I *C 77 45 *L 0 *D NOR2X1
*P *25 I *C 0 0 *L 0

*CAP
1 *578:A 1.35542e-05
2 *25 1.35542e-05

*RES
1 *578:A *25 0.0266667
2 *25:6 *585:B 0.4
3 *25:5 *578:A 4
4 *25:4 *25:6 0.24
5 *25:2 *25:5 1.6
6 *25:1 *25:4 0.16
7 *25:1 *725:A 0.4
8 *25:0 *25:2 4
9 *25:0 *25:1 0.24
*END

*D_NET *27 0

*CONN
*I *420:C I *C 54 66 *L 0 *D OAI21X1
*I *419:A I *C 57 64 *L 0 *D OAI21X1
*I *379:Q O *C 55 59 *L 0 *D DFFPOSX1
*I *593:A I *C 72 78 *L 0 *D NOR2X1
*I *630:B I *C 65 77 *L 0 *D XOR2X1
*I *606:B I *C 97 76 *L 0 *D NOR2X1
*I *646:A I *C 132 58 *L 0 *D INVX1

*CAP

*RES
1 *27:34 *646:A 4
2 *27:33 *27:34 1.04
3 *27:32 *27:33 0.16
4 *27:31 *27:32 2.4
5 *27:30 *27:31 4
6 *27:29 *27:30 0.4
7 *27:27 *27:29 0.24
8 *27:26 *606:B 4
9 *27:25 *27:27 8.08
10 *27:24 *27:26 1.28
11 *27:23 *27:25 0.24
12 *27:20 *27:24 4
13 *27:20 *27:23 0.4
14 *27:19 *630:B 0.4
15 *27:18 *593:A 4
16 *27:17 *27:20 2.96
17 *27:16 *27:19 4
18 *27:15 *27:18 2.08
19 *27:14 *27:17 0.24
20 *27:13 *27:16 1.84
21 *27:12 *27:15 4
22 *27:12 *27:14 3.6
23 *27:10 *27:13 4
24 *27:10 *27:12 2.32
25 *27:9 *379:Q 4
26 *27:8 *27:10 1.68
27 *27:7 *27:9 0.24
28 *27:5 *27:8 4
29 *27:4 *27:7 0.16
30 *27:3 *419:A 4
31 *27:3 *27:5 1.6
32 *27:1 *27:4 1.04
33 *27:1 *27:3 0.8
34 *27:0 *420:C 4
35 *27:0 *27:1 0.48
*END

*D_NET *28 0

*CONN
*I *428:C I *C 44 65 *L 0 *D AOI22X1
*I *421:A I *C 45 64 *L 0 *D OAI21X1
*I *422:C I *C 46 75 *L 0 *D OAI21X1
*I *425:A I *C 44 78 *L 0 *D NOR2X1
*I *657:A I *C 40 77 *L 0 *D INVX2
*I *380:Q O *C 40 62 *L 0 *D DFFPOSX1

*CAP

*RES
1 *28:14 *380:Q 4
2 *28:13 *28:14 0.48
3 *28:12 *28:13 0.16
4 *28:11 *28:12 1.6
5 *657:A *28:11 4
6 *28:8 *657:A 0.8
7 *28:8 *425:A 0.24
8 *28:5 *28:8 4
9 *28:4 *422:C 4
10 *28:3 *421:A 0.24
11 *28:2 *28:5 0.48
12 *28:2 *28:4 0.64
13 *428:C *28:3 0.4
14 *28:0 *28:2 2.64
15 *28:0 *428:C 4
*END

*D_NET *29 0

*CONN
*I *438:C I *C 62 95 *L 0 *D OAI21X1
*I *656:A I *C 96 97 *L 0 *D INVX2
*I *381:Q O *C 97 102 *L 0 *D DFFPOSX1
*I *465:B I *C 134 84 *L 0 *D AOI22X1

*CAP

*RES
1 *29:21 *465:B 4
2 *29:20 *29:21 2.08
3 *29:19 *29:20 4
4 *29:18 *29:19 1.68
5 *29:17 *29:18 0.24
6 *29:16 *29:17 1.68
7 *29:15 *29:16 0.24
8 *29:13 *29:15 4.64
9 *29:11 *381:Q 4
10 *29:10 *29:13 4
11 *29:8 *656:A 4
12 *29:7 *29:11 0.4
13 *29:6 *29:10 1.82
14 *29:5 *438:C 4
15 *29:4 *29:8 0.8
16 *29:4 *29:7 0.48
17 *29:3 *29:6 4
18 *29:2 *29:5 1.28
19 *29:1 *29:4 4
20 *29:1 *29:3 2.08
21 *29:0 *29:2 4
22 *29:0 *29:1 8.96
*END

*D_NET *30 0

*CONN
*I *441:B I *C 65 95 *L 0 *D NAND2X1
*I *466:B I *C 128 104 *L 0 *D AOI22X1
*I *660:A I *C 97 117 *L 0 *D INVX2
*I *456:C I *C 51 105 *L 0 *D AOI22X1
*I *383:Q O *C 40 119 *L 0 *D DFFPOSX1

*CAP

*RES
1 *30:30 *383:Q 0.64
2 *30:26 *30:30 4
3 *30:25 *456:C 1.04
4 *30:24 *660:A 4
5 *30:23 *466:B 4
6 *30:22 *30:26 1.28
7 *30:21 *30:25 4
8 *30:20 *30:24 2.08
9 *30:19 *30:23 1.04
10 *30:18 *30:22 4
11 *30:17 *30:21 0.48
12 *30:16 *30:20 4
13 *30:15 *30:19 4
14 *30:14 *30:18 1.28
15 *30:14 *30:17 4
16 *30:13 *30:16 0.24
17 *30:13 *30:15 8.08
18 *30:12 *30:14 1.68
19 *30:11 *30:13 3.2
20 *30:10 *30:12 0.48
21 *30:9 *30:11 0.24
22 *30:7 *30:10 2.72
23 *30:6 *30:9 1.68
24 *30:5 *441:B 0.48
25 *30:4 *30:7 0.48
26 *30:3 *30:6 0.48
27 *30:2 *30:5 4
28 *30:1 *30:4 0.4
29 *30:1 *30:3 3.6
30 *30:0 *30:2 2.64
31 *30:0 *30:1 4
*END

*D_NET *31 0

*CONN
*I *396:Q O *C 101 122 *L 0 *D DFFPOSX1
*I *472:C I *C 92 126 *L 0 *D OAI21X1
*I *520:B I *C 123 117 *L 0 *D AOI22X1
*I *659:A I *C 87 117 *L 0 *D INVX2

*CAP

*RES
1 *31:23 *659:A 4
2 *31:21 *520:B 0.16
3 *31:20 *31:23 0.48
4 *31:19 *472:C 4
5 *31:18 *31:21 4
6 *31:17 *31:20 4
7 *31:16 *31:19 1.84
8 *31:15 *31:18 0.48
9 *31:14 *31:17 1.28
10 *31:14 *31:16 4
11 *31:13 *31:15 4
12 *31:12 *31:14 0.4
13 *31:11 *31:13 2.08
14 *31:10 *31:12 0.48
15 *31:9 *31:11 0.24
16 *31:8 *31:10 2.96
17 *31:7 *31:9 1.68
18 *31:6 *31:8 0.48
19 *31:5 *31:7 0.24
20 *31:4 *31:6 0.4
21 *31:4 *31:5 0.4
22 *31:3 *31:4 4
23 *31:2 *31:3 0.8
24 *31:1 *31:2 4
25 *396:Q *31:1 1.28
*END

*D_NET *32 0

*CONN
*I *382:Q O *C 101 142 *L 0 *D DFFPOSX1
*I *479:A I *C 88 124 *L 0 *D NAND2X1
*I *661:A I *C 117 124 *L 0 *D INVX2
*I *467:B I *C 120 124 *L 0 *D AOI22X1
*I *450:C I *C 89 136 *L 0 *D AOI22X1

*CAP

*RES
1 *32:26 *450:C 4
2 *32:25 *32:26 4
3 *32:24 *32:25 4
4 *32:22 *32:24 0.42
5 *661:A *467:B 0.64
6 *32:20 *32:22 0.14
7 *32:19 *661:A 4
8 *32:17 *32:20 1.82
9 *32:16 *32:19 0.24
10 *32:15 *479:A 4
11 *32:14 *32:17 0.14
12 *32:13 *32:16 4
13 *32:12 *32:15 4
14 *32:11 *32:14 0.42
15 *32:10 *32:13 1.04
16 *32:9 *32:12 0.16
17 *32:9 *32:11 4
18 *32:8 *32:10 0.24
19 *32:7 *32:9 2.72
20 *32:7 *32:8 3.6
21 *32:6 *32:7 4
22 *32:5 *32:6 4.2
23 *32:4 *32:5 4
24 *32:3 *32:4 1.68
25 *32:2 *32:3 4
26 *32:1 *32:2 4
27 *382:Q *32:1 1.28
*END

*D_NET *33 0

*CONN
*I *479:B I *C 87 126 *L 0 *D NAND2X1
*I *662:A I *C 97 137 *L 0 *D INVX2
*I *452:C I *C 85 137 *L 0 *D OAI22X1
*I *468:B I *C 129 137 *L 0 *D AOI22X1
*I *415:A I *C 62 136 *L 0 *D AOI22X1
*I *378:Q O *C 62 142 *L 0 *D DFFPOSX1

*CAP

*RES
1 *33:26 *378:Q 4
2 *33:25 *415:A 4
3 *33:25 *33:26 1.6
4 *33:24 *33:25 4
5 *33:23 *33:24 0.4
6 *33:22 *33:23 0.48
7 *33:20 *33:22 4.48
8 *33:19 *468:B 4
9 *33:17 *33:20 0.48
10 *33:16 *33:19 0.48
11 *33:15 *452:C 4
12 *33:14 *33:17 1.28
13 *33:12 *33:16 4
14 *33:11 *33:15 0.24
15 *33:11 *33:14 4
16 *33:10 *662:A 4
17 *33:9 *33:12 0.8
18 *33:8 *33:11 0.48
19 *33:7 *33:10 0.8
20 *33:6 *33:9 0.24
21 *33:4 *33:8 4
22 *33:3 *33:7 4
23 *33:3 *33:6 7.68
24 *33:2 *479:B 4
25 *33:1 *33:4 0.4
26 *33:1 *33:3 2.72
27 *33:0 *33:2 2.08
28 *33:0 *33:1 4
*END

*D_NET *34 0

*CONN
*I *399:Q O *C 156 42 *L 0 *D DFFPOSX1
*I *633:A I *C 157 44 *L 0 *D INVX2

*CAP

*RES
1 *399:Q *633:A 0.16
*END

*D_NET *35 0

*CONN
*I *434:D I *C 88 77 *L 0 *D AOI22X1
*I *658:A I *C 160 57 *L 0 *D INVX2
*I *525:B I *C 160 64 *L 0 *D AOI22X1
*I *400:Q O *C 164 59 *L 0 *D DFFPOSX1

*CAP

*RES
1 *35:33 *400:Q 0.64
2 *35:30 *35:33 4
3 *35:29 *525:B 0.16
4 *35:28 *658:A 4
5 *35:28 *35:30 0.4
6 *35:27 *35:29 4
7 *35:26 *35:28 1.04
8 *35:25 *35:27 0.8
9 *35:24 *35:26 4
10 *35:23 *35:25 4
11 *35:23 *35:24 0.4
12 *35:22 *35:23 0.4
13 *35:21 *35:22 0.08
14 *35:20 *35:21 7.2
15 *35:19 *35:20 0.08
16 *35:18 *35:19 0.64
17 *35:17 *35:18 0.08
18 *35:16 *35:17 4.48
19 *35:14 *35:16 0.08
20 *35:13 *434:D 0.16
21 *35:12 *35:14 0.4
22 *35:11 *35:13 4
23 *35:10 *35:12 4